
Circuit: ngspice t1

Doing analysis at TEMP = 27.000000 and TNOM = 27.000000


No. of Data Rows : 1
op_TAB
@g1[i] = -2.32920e-04
@i1[current] = 1.031362e-03
@r1[i] = -2.22464e-04
@r2[i] = -2.32920e-04
@r3[i] = -1.04564e-05
@r4[i] = 1.148500e-03
@r5[i] = 1.264282e-03
@r6[i] = -9.26037e-04
@r7[i] = -9.26037e-04
h1#branch = 1.053256e-04
v0 = -4.80903e+00
v1 = 1.921818e-01
v1#branch = -2.22464e-04
v2 = -3.26862e-02
v3 = -5.16379e-01
v4 = -4.80903e+00
v6 = 3.899261e+00
v7 = -6.66276e+00
v8 = -7.63099e+00
vt#branch = 9.260366e-04
op_END
ngspice-31 done
