
Circuit: *

Doing analysis at TEMP = 27.000000 and TNOM = 27.000000


No. of Data Rows : 1
********************************************
Operating point
********************************************
vcc = 1.000000e+01
@q1[ic] = 1.404513e-02
@rf[i] = 7.022567e-05
op_TAB
@cb[i] = 0.000000e+00
@ce[i] = 0.000000e+00
@q1[ib] = 7.022567e-05
@q1[ic] = 1.404513e-02
@q1[ie] = -1.41154e-02
@q1[is] = 5.765392e-12
@rc[i] = 1.411536e-02
@re[i] = 1.411536e-02
@rf[i] = 7.022567e-05
@rs[i] = 0.000000e+00
v(1) = 0.000000e+00
v(2) = 0.000000e+00
base = 2.254108e+00
coll = 5.765392e+00
emit = 1.411536e+00
vcc = 1.000000e+01
vcc#branch = -1.41154e-02
vin#branch = 0.000000e+00
op_END
********************************************
Transient analysis
********************************************
Doing analysis at TEMP = 27.000000 and TNOM = 27.000000


Initial Transient Solution
--------------------------

Node                                   Voltage
----                                   -------
vcc                                         10
1                                            0
2                                            0
base                                   2.25411
coll                                   5.76539
emit                                   1.41154
vin#branch                                   0
vcc#branch                          -0.0141154


No. of Data Rows : 1360

The file "trans.ps" may be printed on a postscript printer.
trans_FIG
********************************************
Frequency analysis
********************************************
Doing analysis at TEMP = 27.000000 and TNOM = 27.000000


No. of Data Rows : 71

The file "acm.ps" may be printed on a postscript printer.
acm_FIG

The file "acp.ps" may be printed on a postscript printer.
acp_FIG
********************************************
Input impedance
********************************************

The file "zim.ps" may be printed on a postscript printer.
zim_FIG
ngspice-31 done
