
Circuit: *

Doing analysis at TEMP = 27.000000 and TNOM = 27.000000


No. of Data Rows : 1
********************************************
Operating point
********************************************
op_TAB
@vx[i] = 9.804367e-04
@hc[i] = 3.412015e-05
@va[i] = -2.44092e-04
@gb[i] = -2.55448e-04
@id[current] = 1.014557e-03
@r1[i] = -2.44092e-04
@r2[i] = -2.55448e-04
@r3[i] = -1.13559e-05
@r4[i] = -1.22453e-03
@r5[i] = -1.27000e-03
@r6[i] = 9.804367e-04
@r7[i] = 9.804367e-04
hc#branch = 3.412015e-05
n1 = 2.524677e-01
n2 = -5.18183e-01
n3 = 3.572797e-02
n4 = -4.90449e+00
n5 = 4.000301e+00
n6 = -6.93514e+00
n7 = -7.93124e+00
n8 = -6.93514e+00
va#branch = -2.44092e-04
vx#branch = 9.804367e-04
op_END
ngspice-31 done
